/*--------------------------------*- C++ -*----------------------------------*\
| =========                 |                                                 |
| \\      /  F ield         | OpenFOAM: The Open Source CFD Toolbox           |
|  \\    /   O peration     | Version:  2.2.x                                 |
|   \\  /    A nd           | Web:      www.OpenFOAM.org                      |
|    \\/     M anipulation  |                                                 |
\*---------------------------------------------------------------------------*/
FoamFile
{
    version     2.0;
    format      ascii;
    class       dictionary;
    object      fvSchemes;
}
// * * * * * * * * * * * * * * * * * * * * * * * * * * * * * * * * * * * * * //

ddtSchemes
{
 ddt(alpha.water) CrankNicolson 1;
 ddt(alpha.air) CrankNicolson 1;
 default CrankNicolson 1;

}

gradSchemes
{
    default Gauss linear;
    grad(U) cellLimited Gauss linear 1;
    grad(p_rgh) leastSquares ;
    grad(p) leastSquares;
}

divSchemes
{
    default           Gauss linear;
    

    div(phi,U)        Gauss linearUpwind grad(U);
    div(rhoPhi,U)     Gauss linearUpwind grad(U);
    div(phi,k)          Gauss limitedLinear 1;
    div(phi,alpha)      Gauss vanLeer;
    div(phirb,alpha)    Gauss interfaceCompression;
    div(phi,p)                    Gauss linear;
    div((nuEff*dev2(T(grad(U))))) Gauss linear;
    div(((rho*nuEff)*dev2(T(grad(U))))) Gauss linear;
    
}

laplacianSchemes
{
 default    Gauss linear uncorrected;
}

interpolationSchemes
{
    default    linear;
}

snGradSchemes
{
    default    corrected;
}

fluxRequired
{
    default no;
    p_rgh;
    pcorr;
    alpha.air;
}


wallDist
{
    method meshWave;
}
