/*--------------------------------*- C++ -*----------------------------------*\
| =========                 |                                                 |
| \\      /  F ield         | OpenFOAM: The Open Source CFD Toolbox           |
|  \\    /   O peration     | Version:  dev                                   |
|   \\  /    A nd           | Web:      www.OpenFOAM.org                      |
|    \\/     M anipulation  |                                                 |
\*---------------------------------------------------------------------------*/
FoamFile
{
    version     2.0;
    format      ascii;
    class       dictionary;
    object      fvSolution;
}
// * * * * * * * * * * * * * * * * * * * * * * * * * * * * * * * * * * * * * //

solvers
{
    "alpha.*"
    {
        cAlpha          1;
        nAlphaCorr      2;
        nAlphaSubCycles 1;

        MULESCorr       no;
        nLimiterIter    5;

        solver          smoothSolver;
        smoother        symGaussSeidel;
        tolerance       1e-8;
        relTol          0;
    //    maxIter         10;
    };

    U
    {
        solver          PBiCGStab;
	preconditioner  DILU;
        tolerance       1e-7;//1e-6;
        relTol          0;
    };


    UFinal
    {
        $U;
        relTol          0;
    }



    p_rgh
    {
        solver          PCG;//GAMG;
        tolerance       1e-9;//1e-6;
        relTol          0.05;
	minIter 2;
        maxIter 10;
	    //smoother DICGaussSeidel;
	    preconditioner
         {
           preconditioner GAMG;//DIC;
           tolerance      1e-05;
           relTol         0;
           smoother    GaussSeidel;//DICGaussSeidel;
           nPreSweeps     0;
           nPostSweeps    2;
           nFinestSweeps  2;
           cacheAgglomeration true;
           nCellsInCoarsestLevel 10;
           agglomerator faceAreaPair;
           mergeLevels   1;
           
         }     
        //maxIter         10;
    };

    p_rghFinal
    {
      $p_rgh
        tolerance       1e-9;
        relTol          0;
    };

    "(pcorr|pcorrFinal)"
    {
        $p_rgh;
        relTol          0;
    };

    Phi
    {
        $p_rgh;
        relTol          0;
    };


     "k|omega|epsilon"
    {
        solver          PBiCG;
        preconditioner  DILU;
        relTol    1e-3;
        tolerance 1e-6;
    }

    "(k|omega|epsilon)Final"
    {
        $k;
        relTol    0;
    }

}

potentialFlow
{
    nNonOrthogonalCorrectors   5;
}

PIMPLE
{
    momentumPredictor           no;
    nOuterCorrectors            7;//4;
    nCorrectors                 2;
    nNonOrthogonalCorrectors    1;
    turbOnFinalIterOnly         on;
    pRefCell                    0;
    pRefValue                   1e5;
    residualControl
    {
        /*"(U|p_rgh)"
        {
            relTol          0;
            tolerance       1e-4;
        }*/

        // "(alpha|k|omega)"
        // {
        //     relTol       0;
        //     tolerance    1e-5;
        // }
    }
}


relaxationFactors
{
    fields
    {
      p_rgh   0.3;
    }
    
    equations
    {
      U                0.7;
      "(k|omega|epsilon)" 0.7;
    }
}

// ************************************************************************* //
