/*--------------------------------*- C++ -*----------------------------------*\
| =========                 |                                                 |
| \\      /  F ield         | OpenFOAM: The Open Source CFD Toolbox           |
|  \\    /   O peration     | Version:  2.1.x                                 |
|   \\  /    A nd           | Web:      www.OpenFOAM.org                      |
|    \\/     M anipulation  |                                                 |
\*---------------------------------------------------------------------------*/
FoamFile
{
    version     2.0;
    format      ascii;
    class       dictionary;
    location    "system";
    object      setFieldsDict;
}
// * * * * * * * * * * * * * * * * * * * * * * * * * * * * * * * * * * * * * //


defaultFieldValues
( 
    volScalarFieldValue alpha.water 1
    volScalarFieldValue alpha.air 0 
   

);


regions
(

    boxToCell
    {
        box
        
        (-0.01 -0.01 -0.03)
        (0.01 0.017 0)
        ;

        fieldValues
        (
	 volScalarFieldValue alpha.water 0
         volScalarFieldValue alpha.air 1
         

        );
    }
 );


// ************************************************************************* //

