/*--------------------------------*- C++ -*----------------------------------*\
| =========                 |                                                 |
| \\      /  F ield         | OpenFOAM: The Open Source CFD Toolbox           |
|  \\    /   O peration     | Version:  2.2.0                                 |
|   \\  /    A nd           | Web:      www.OpenFOAM.org                      |
|    \\/     M anipulation  |                                                 |
\*---------------------------------------------------------------------------*/
FoamFile
{
    version     2.0;
    format      ascii;
    class       dictionary;
    location    "constant";
    object      RASProperties;
}
// * * * * * * * * * * * * * * * * * * * * * * * * * * * * * * * * * * * * * //

simulationType   RAS;//laminar 

RAS
{
    RASModel        kOmegaSST;//filteredkOmegaSST; //filteredkEpsilon;

    turbulence      on;

    printCoeffs     on;

    // filter DLRM;

    // DLRMCoeffs
    // {
    //     lesModel laminar;
    //     filter   DLRM;
    //     maxLSR   7;
    // }

}

// LES
// {
//     delta cubeRootVol;

//     cubeRootVolCoeffs
//     {};
// }

// ************************************************************************* //
