/*--------------------------------*- C++ -*----------------------------------*\
| =========                 |                                                 |
| \\      /  F ield         | OpenFOAM: The Open Source CFD Toolbox           |
|  \\    /   O peration     | Version:  1.7.x.Continental                     |
|   \\  /    A nd           | Web:      www.OpenFOAM.com                      |
|    \\/     M anipulation  |                                                 |
\*---------------------------------------------------------------------------*/
FoamFile
{
    version     2.0;
    format      ascii;
    class       volScalarField;
    location    "0";
    object      nut;
}
// * * * * * * * * * * * * * * * * * * * * * * * * * * * * * * * * * * * * * //

dimensions      [ 0 2 -1 0 0 0 0 ];

internalField   uniform 1e-08;
boundaryField
{
    inlet
    {
        type            calculated;
        value           uniform 1e-08;
    }
   

    outlet
    {
      
       type            calculated;
       value           $internalField;
   
    }

    nozzleWall
    {
        type nutkWallFunction;
        value $internalField;
    }


    Wall
    {
     type nutkWallFunction;
        value $internalField;
   
    }
   
     topWall
    {
     type nutkWallFunction;
        value $internalField;
   
    }

 
    
}



// ************************************************************************* //
