/*--------------------------------*- C++ -*----------------------------------*\
| =========                 |                                                 |
| \\      /  F ield         | OpenFOAM: The Open Source CFD Toolbox           |
|  \\    /   O peration     | Version:  1.7.x.Continental                     |
|   \\  /    A nd           | Web:      www.OpenFOAM.com                      |
|    \\/     M anipulation  |                                                 |
\*---------------------------------------------------------------------------*/
FoamFile
{
    version     2.0;
    format      ascii;
    class       volScalarField;
    location    "0";
    object      p;
}
// * * * * * * * * * * * * * * * * * * * * * * * * * * * * * * * * * * * * * //
 
WantedOutletPressure	100000;


dimensions      [ 1 -1 -2 0 0 0 0 ];

internalField   uniform $WantedOutletPressure;

boundaryField
{
    inlet
    {
        type    calculated;
        value   $internalField;
    }

    outlet
    {
        type    calculated;
	value  $internalField;
    }

    nozzleWall
    {
        type calculated;
        value  $internalField;
    }
    
     topWall
    {
     
        type calculated;
        value  $internalField;
   
    }
    
    Wall
    {
     
        type calculated;
        value  $internalField;
   
    }


 }



// ************************************************************************* //
