/*--------------------------------*- C++ -*----------------------------------*\
| =========                 |                                                 |
| \\      /  F ield         | OpenFOAM: The Open Source CFD Toolbox           |
|  \\    /   O peration     | Version:  2.3.1                                 |
|   \\  /    A nd           | Web:      www.OpenFOAM.org                      |
|    \\/     M anipulation  |                                                 |
\*---------------------------------------------------------------------------*/
FoamFile
{
    version     2.0;
    format      ascii;
    class       volVectorField;
    location    "0";
    object      U;
}
// * * * * * * * * * * * * * * * * * * * * * * * * * * * * * * * * * * * * * //

dimensions      [0 1 -1 0 0 0 0];

internalField   uniform (0 0 0);

boundaryField
{
    inlet
    {
        type                pressureInletOutletVelocity;
        value               $internalField;
    }

    outlet
    {
        type    pressureInletOutletVelocity;
        value   uniform (0 0 0);
    }

    nozzleWall
    {
        type fixedValue;
        value uniform (0 0 0);
    }
  

    topWall
    {
        type fixedValue;
        value uniform (0 0 0);
    }
    
   Wall
    {
        type fixedValue;
        value uniform (0 0 0);
    }

   
 
   

}


// ************************************************************************* //
